<?xml version="1.0" encoding="UTF-8"?>

<!-- generated on Fri Feb 19 22:21:20 2021 by Eclipse SUMO duarouter Version 1.8.0
<configuration xmlns:xsi="http://www.w3.org/2001/XMLSchema-instance" xsi:noNamespaceSchemaLocation="http://sumo.dlr.de/xsd/duarouterConfiguration.xsd">

    <input>
        <net-file value="/root/Desktop/MSWIM/Revista/sim_files/templates/osm.net.xml"/>
        <additional-files value="/root/Desktop/MSWIM/Revista/sim_files/templates/vtype.xml"/>
        <route-files value="/root/Desktop/MSWIM/Revista/sim_files/RandomTrips/0_0/trips/23_45_randomTrips.xml"/>
    </input>

    <output>
        <output-file value="routes.rou.xml"/>
        <alternatives-output value="routes.rou.alt.xml"/>
    </output>

    <time>
        <begin value="85500"/>
        <end value="86400"/>
    </time>

    <report>
        <verbose value="true"/>
        <ignore-errors value="true"/>
        <no-step-log value="true"/>
    </report>

</configuration>
-->

<routes xmlns:xsi="http://www.w3.org/2001/XMLSchema-instance" xsi:noNamespaceSchemaLocation="http://sumo.dlr.de/xsd/routes_file.xsd">
    <vType id="car" speedFactor="normc(1.00,0.60,0.80,1.20)" vClass="passenger" emissionClass="HBEFA3/LDV_G_EU6" color="yellow"/>
    <vehicle id="0" type="car" depart="85500.00" departSpeed="0.00">
        <route edges="4776833#3 262723582#2 35465964#7 541430463#3 541430463#4 541430463#5 541430463#7 541430463#10 450280363#0 -544164277 257568505 237659844#0 544200294 544617969 -397481041#3 -397481041#0 226319973 554016569 522164020 544117078 181849012#0 544200290 116315069#0 307933383#0 307933383#1 307933383#2 307933383#5 307933383#6 307933383#8 307933383#10 307933383#11 237645185#0 237645185#1 237645185#2 579981380#0 579981380#1 579981380#3 449991630#0 449991630#1 449991630#2 295124098#20 295124098#21 295124098#23 295124098#25 295124098#26 483469230#7 483469230#9 483469230#10 483469230#12 483469230#13 483469230#15 553743885#1 238179183#0 238179183#1 238179183#2 238179183#4 238179183#5 545718427#0 545718427#1"/>
    </vehicle>
    <vehicle id="1" type="car" depart="85547.37" departSpeed="0.00">
        <route edges="34908746#5 34908764 -237957220 -54514989#2 -54514989#1 -54514989#0 -29382777 542149422 165842956#1 165842956#2 165842956#4 165842956#6 542990498#2 237659853#2 237659853#4 237659853#6 675395642#0 165842957#0 237522639#0 238866888#0 238866888#1 238866888#3 238866888#4 238866888#5 238866888#6 293858815 295281481#1 295281481#3 238324880#0 238324880#1 238324880#2 238324880#5 238324880#6 238324880#7 238324880#8 525638418#0 525638418#1 525638418#3 237645196#0 237645196#1 237645196#2 525638416#0 525638416#1 525638416#2 237790228#0 237790228#1 237790228#4 237790228#6 237790228#7 237790228#8 449991616#7 449991616#8 449991616#9 449991616#10 449991616#11 449991616#12 449991616#13 449991616#15 449991616#16 449991616#18 449991616#19 449991616#20 483469781#0 238179181#7"/>
    </vehicle>
    <vehicle id="2" type="car" depart="85594.74" departSpeed="0.00">
        <route edges="35155834 54678282 136415196#0 35067067#0 35067067#2 37067695#2 -262723581 -237957220 -54514989#2 -54514989#1 -54514989#0 -29382777 542149422 165842956#1 165842956#2 165842956#4 165842956#6 542990498#2 237659853#2 237659853#4 237659853#6 675395642#0 165842957#0 237522639#0 238866888#0 238866888#1 238866888#3 238866888#4 238866888#5 238866888#6 293858815 295281481#1 295281481#3 238324880#0 238324880#1 238324880#2 238324880#5 238324880#6 238324880#7 238324880#8 525638418#0 525638418#1 525638418#3 237645196#0 237645196#1 237645196#2 525638416#0 525638416#1 525638416#2 237790228#0 237790228#1 237790228#4 237790228#6 237790228#7 237790228#8 449991616#7 449991616#8 449991616#9 449991616#10 449991616#11 449991616#12 449991616#13 449991616#15 449991616#16 449991616#18 449991616#19 449991616#20 483469782 440369834#0 440369834#1 304693485 23191708#1 23191708#4 330913949#0 330913949#1 330913949#2"/>
    </vehicle>
    <vehicle id="3" type="car" depart="85642.11" departSpeed="0.00">
        <route edges="4776811#3 4776811#4 34908746#0 34908746#4 34908746#5 34908764 -237957220 -54514989#2 -54514989#1 -54514989#0 -29382777 542149422 165842956#1 165842956#2 165842956#4 165842956#6 542990498#2 237659853#2 237659853#4 237659853#6 675395642#0 165842957#0 237522639#0 238866888#0 238866888#1 238866888#3 238866888#4 238866888#5 238866888#6 293858815 295281481#1 295281481#3 238324880#0 238324880#1 238324880#2 238324880#5 238324880#6 238324880#7 238324880#8 525638418#0 525638418#1 525638418#3 237645196#0 237645196#1 237645196#2 525638416#0 525638416#1 525638416#2 237790228#0 237790228#1 237790228#4 237790228#6 237790228#7 237790228#8 449991616#7 449991616#8 449991616#9 449991616#10 449991616#11 449991616#12 449991616#13 449991616#15 449991616#16 449991616#18 449991616#19 449991616#20 483469782 440369834#0 440369834#1 304693485 140001523#2 140001525 304693486#0 304693486#1 304693486#2 304693486#3"/>
    </vehicle>
    <vehicle id="4" type="car" depart="85689.47" departSpeed="0.00">
        <route edges="35066571#0 308379493#1 37067695#0 37067695#1 37067695#2 -262723581 -237957220 -54514989#2 -54514989#1 -54514989#0 -29382777 542149422 165842956#1 165842956#2 165842956#4 165842956#6 542990498#2 237659853#2 237659853#4 237659853#6 675395642#0 165842957#0 237522639#0 238866888#0 238866888#1 238866888#3 238866888#4 238866888#5 238866888#6 293858815 295281481#1 295281481#3 238324880#0 238324880#1 238324880#2 238324880#5 238324880#6 238324880#7 238324880#8 525638418#0 525638418#1 525638418#3 237645196#0 237645196#1 237645196#2 525638416#0 525638416#1 525638416#2 237790228#0 237790228#1 237790228#4 237790228#6 237790228#7 237790228#8 449991616#7 449991616#8 449991616#9 449991616#10 449991616#11 449991616#12 449991616#13 449991616#15 449991616#16 449991616#18 449991616#19 449991616#20 483469782 440369834#0 440369834#1"/>
    </vehicle>
    <vehicle id="5" type="car" depart="85736.84" departSpeed="0.00">
        <route edges="541430463#3 541430463#4 541430463#5 541430463#7 541430463#10 450280363#0 -544164277 257568505 237659844#0 544200294 544617969 -397481041#3 -397481041#0 226319973 554016569 522164020 544117078 181849012#0 544200290 116315069#0 307933383#0 307933383#1 307933383#2 307933383#5 307933383#6 307933383#8 307933383#10 307933383#11 237645185#0 237645185#1 237645185#2 579981380#0 579981380#1 579981380#3 449991630#0 449991630#1 449991630#2 295124098#20 295124098#21 295124098#23 295124098#25 295124098#26 483469230#7 483469230#9 483469230#10 483469230#12 483469230#13 483469230#15 553743885#1 238179183#0 238179183#1 238179183#2 238179183#4 238179183#5 545718427#0 545718427#1 483469782 440369834#0 440369834#1 304693485 23191708#1 23191708#4 330913949#0 330913949#1 330913949#2 330913952#0"/>
    </vehicle>
    <vehicle id="6" type="car" depart="85784.21" departSpeed="0.00">
        <route edges="257568501#9 4752025#6 4752025#10 4752025#11 165842956#4 165842956#6 542990498#2 237659853#2 237659853#4 237659853#6 675395642#0 165842957#0 237522639#0 238866888#0 238866888#1 238866888#3 238866888#4 238866888#5 238866888#6 293858815 295281481#1 295281481#3 238324880#0 238324880#1 238324880#2 238324880#5 238324880#6 238324880#7 238324880#8 525638418#0 525638418#1 525638418#3 579981380#0 579981380#1 579981380#3 449991630#0 449991630#1 449991630#2 295124098#20 295124098#21 295124098#23 295124098#25 295124098#26 483469230#7 483469230#9 483469230#10 483469230#12 483469230#13 483469230#15 553743885#1 238179183#0 238179183#1 238179183#2 238179183#4 238179183#5 545718427#0"/>
    </vehicle>
    <vehicle id="7" type="car" depart="85831.58" departSpeed="0.00">
        <route edges="4752000#3 541430463#7 541430463#10 450280363#0 -544164277 257568505 237659844#0 544200294 544617969 -397481041#3 -397481041#0 226319973 554016569 522164020 544117078 181849012#0 544200290 116315069#0 307933383#0 307933383#1 307933383#2 307933383#5 307933383#6 307933383#8 307933383#10 307933383#11 237645185#0 237645185#1 237645185#2 579981380#0 579981380#1 579981380#3 449991630#0 449991630#1 449991630#2 295124098#20 295124098#21 295124098#23 295124098#25 295124098#26 483469230#7 483469230#9 483469230#10 483469230#12 483469230#13 483469230#15 553743885#1 238179175#0 238179175#2 238179181#0 238179181#1 238179181#2 238179181#4 238179181#5 238179181#6"/>
    </vehicle>
    <vehicle id="8" type="car" depart="85878.95" departSpeed="0.00">
        <route edges="541430463#3 541430463#4 541430463#5 541430463#7 541430463#10 450280363#0 -544164277 257568505 237659844#0 544200294 544617969 -397481041#3 -397481041#0 226319973 554016569 522164020 544117078 181849012#0 544200290 116315069#0 307933383#0 307933383#1 307933383#2 307933383#5 307933383#6 307933383#8 307933383#10 307933383#11 237645185#0 237645185#1 237645185#2 579981380#0 579981380#1 579981380#3 449991630#0 449991630#1 449991630#2 295124098#20 295124098#21 295124098#23 295124098#25 295124098#26 483469230#7 483469230#9 483469230#10 483469230#12 483469230#13 483469230#15 553743885#1 238179183#0 238179183#1 238179183#2 238179183#4 238179183#5 545718427#0 545718427#1 483469782 440369834#0 440369834#1 304693485 140001523#2 140001525 23191709#0 23191709#2 549749261#1 549749261#2 549749261#4 549749259#0 549749259#1 549749259#2 449991628#0 449991628#1 449991628#2 182069869#3 182069869#4 182069869#5 579970669#0 579970669#1 579970669#2"/>
    </vehicle>
    <vehicle id="9" type="car" depart="85926.32" departSpeed="0.00">
        <route edges="4776831#2 541430463#1 541430463#2 541430463#3 541430463#4 541430463#5 541430463#7 541430463#10 450280363#0 -544164277 257568505 237659844#0 544200294 544617969 -397481041#3 -397481041#0 226319973 554016569 522164020 544117078 181849012#0 544200290 116315069#0 307933383#0 307933383#1 307933383#2 307933383#5 307933383#6 307933383#8 307933383#10 307933383#11 237645185#0 237645185#1 237645185#2 579981380#0 579981380#1 579981380#3 449991630#0 449991630#1 449991630#2 295124098#20 295124098#21 295124098#23 295124098#25 295124098#26 483469230#7 483469230#9 483469230#10 483469230#12 483469230#13 483469230#15 553743885#1 238179183#0 238179183#1 238179183#2 238179183#4 238179183#5 545718427#0 545718427#1 483469782 440369834#0 440369834#1 304693485 23191708#1 23191708#4 549749258#0 549749258#1 549749258#2 549749264#4"/>
    </vehicle>
    <vehicle id="10" type="car" depart="85973.68" departSpeed="0.00">
        <route edges="26434305#1 4752002#5 4752002#6 4752002#7 4752002#8 542169706#0 542169706#1 451607872#0 -544617968#0 -544164278 -397481044 -397481042 -544164277 257568505 237659844#0 544200294 544617969 -397481041#3 -397481041#0 226319973 554016569 522164020 544117078 181849012#0 544200290 116315069#0 307933383#0 307933383#1 307933383#2 307933383#5 307933383#6 307933383#8 307933383#10 307933383#11 237645185#0 237645185#1 237645185#2 579981380#0 579981380#1 579981380#3 449991630#0 449991630#1 449991630#2 295124098#20 295124098#21 295124098#23 295124098#25 295124098#26 483469230#7 483469230#9 483469230#10 483469230#12 483469230#13 483469230#15 553743885#1 238179183#0 238179183#1 238179183#2 238179183#4 238179183#5 545718427#0 545718427#1 483469782 440369834#0 440369834#1 304693485 23191708#1 23191708#4 330913949#0 330913949#1 330913949#2 330913949#4 330913949#5 490751788#0 490751788#1"/>
    </vehicle>
    <vehicle id="11" type="car" depart="86021.05" departSpeed="0.00">
        <route edges="541430463#1 541430463#2 541430463#3 541430463#4 541430463#5 541430463#7 541430463#10 450280363#0 -544164277 257568505 237659844#0 544200294 544617969 -397481041#3 -397481041#0 226319973 554016569 522164020 544117078 181849012#0 544200290 116315069#0 307933383#0 307933383#1 307933383#2 307933383#5 307933383#6 307933383#8 307933383#10 307933383#11 237645185#0 237645185#1 237645185#2 237645196#0 237645196#1 237645196#2 525638416#0 525638416#1 525638416#2 237790228#0 237790228#1 237790228#4 237790228#6 237790228#7 237790228#8 449991616#7 449991616#8 449991616#9 449991616#10 449991616#11 449991616#12 449991616#13 449991616#15 449991616#16 449991616#18 449991616#19 449991616#20 483469781#0 483469781#1 483469781#2 483469781#4 483469781#5 483469781#6"/>
    </vehicle>
    <vehicle id="12" type="car" depart="86068.42" departSpeed="0.00">
        <route edges="35066571#0 308379493#1 37067695#0 37067695#1 37067695#2 -262723581 -237957220 -54514989#2 -54514989#1 -54514989#0 -29382777 542149422 165842956#1 165842956#2 165842956#4 165842956#6 542990498#2 237659853#2 237659853#4 237659853#6 675395642#0 165842957#0 237522639#0 238866888#0 238866888#1 238866888#3 238866888#4 238866888#5 238866888#6 293858815 295281481#1 295281481#3 238324880#0 238324880#1 238324880#2 238324880#5 238324880#6 238324880#7 238324880#8 525638418#0 525638418#1 525638418#3 237645196#0 237645196#1 237645196#2 525638416#0 525638416#1 525638416#2 237790228#0 237790228#1 237790228#4 237790228#6 237790228#7 237790228#8 449991616#7 449991616#8 449991616#9 449991616#10 449991616#11 449991616#12 449991616#13 449991616#15 449991616#16 449991616#18 449991616#19 449991616#20 483469782 440369834#0 440369834#1 304693485 140001523#2 140001525 304693486#0 304693486#1 304693486#2 304693486#3 552386719#0 23191707#0"/>
    </vehicle>
    <vehicle id="13" type="car" depart="86115.79" departSpeed="0.00">
        <route edges="34908902#0 35066991#1 287683998#2 287683998#3 237659854 542149422 165842956#1 165842956#2 165842956#4 165842956#6 542990498#2 237659853#2 237659853#4 237659853#6 675395642#0 165842957#0 237522639#0 238866888#0 238866888#1 238866888#3 238866888#4 238866888#5 238866888#6 293858815 295281481#1 295281481#3 238324880#0 238324880#1 238324880#2 238324880#5 238324880#6 238324880#7 238324880#8 525638418#0 525638418#1 525638418#3 579981380#0 579981380#1 579981380#3 449991630#0 449991630#1 449991630#2 295124098#20 295124098#21 295124098#23 295124098#25 295124098#26 483469230#7 483469230#9 483469230#10 483469230#12 483469230#13 483469230#15 553743885#1 238179175#0 238179175#2 238179175#3 238179175#4 238179175#5 32065149#0 32065149#1 32065149#2 449991624#6"/>
    </vehicle>
    <vehicle id="14" type="car" depart="86163.16" departSpeed="0.00">
        <route edges="541430463#4 541430463#5 541430463#7 541430463#10 450280363#0 -544164277 257568505 237659844#0 544200294 544617969 -397481041#3 -397481041#0 226319973 554016569 522164020 544117078 181849012#0 544200290 116315069#0 307933383#0 307933383#1 307933383#2 307933383#5 307933383#6 307933383#8 307933383#10 307933383#11 237645185#0 237645185#1 237645185#2 579981380#0 579981380#1 579981380#3 449991630#0 449991630#1 449991630#2 295124098#20 295124098#21 295124098#23 295124098#25 295124098#26 483469230#7 483469230#9 483469230#10 483469230#12 483469230#13 483469230#15 553743885#1 238179183#0 238179183#1 238179183#2 238179183#4 238179183#5 545718427#0 545718427#1 483469782 440369834#0 440369834#1 304693485 140001523#2 140001525 23191709#0 23191709#2 549749261#1 549749261#2 549749261#4 549749259#0 549749259#1 549749259#2 449991628#0 449991628#1 449991628#2 182069869#3 182069869#4 182069869#5 579970669#0"/>
    </vehicle>
    <vehicle id="15" type="car" depart="86210.53" departSpeed="0.00">
        <route edges="35066571#1 301459438#0 -35066473 4776811#3 4776811#4 34908746#0 34908746#4 34908746#5 34908764 -237957220 -54514989#2 -54514989#1 -54514989#0 -29382777 542149422 165842956#1 165842956#2 165842956#4 165842956#6 542990498#2 237659853#2 237659853#4 237659853#6 675395642#0 165842957#0 237522639#0 238866888#0 238866888#1 238866888#3 238866888#4 238866888#5 238866888#6 293858815 295281481#1 295281481#3 238324880#0 238324880#1 238324880#2 238324880#5 238324880#6 238324880#7 238324880#8 525638418#0 525638418#1 525638418#3 237645196#0 237645196#1 237645196#2 525638416#0 525638416#1 525638416#2 237790228#0 237790228#1 237790228#4 237790228#6 237790228#7 237790228#8 449991616#7 449991616#8 449991616#9 449991616#10 449991616#11 449991616#12 449991616#13 449991616#15 449991616#16 449991616#18 449991616#19 449991616#20 483469782 440369834#0 440369834#1 304693485 140001523#2 140001525 23191709#0 23191709#2 549749261#1 549749261#2"/>
    </vehicle>
    <vehicle id="16" type="car" depart="86257.89" departSpeed="0.00">
        <route edges="257568501#10 330300025#0 34908912#1 4752025#10 4752025#11 165842956#4 165842956#6 542990498#2 237659853#2 237659853#4 237659853#6 675395642#0 165842957#0 237522639#0 238866888#0 238866888#1 238866888#3 238866888#4 238866888#5 238866888#6 293858815 295281481#1 295281481#3 238324880#0 238324880#1 238324880#2 238324880#5 238324880#6 238324880#7 238324880#8 525638418#0 525638418#1 525638418#3 237645196#0 237645196#1 237645196#2 525638416#0 525638416#1 525638416#2 237790228#0 237790228#1 237790228#4 237790228#6 237790228#7 237790228#8 449991616#7 449991616#8 449991616#9 449991616#10 449991616#11 449991616#12 449991616#13 449991616#15 449991616#16 449991616#18 449991616#19 449991616#20 483469782 440369834#0 440369834#1 304693485 23191708#1 23191708#4 549749258#0 549749258#1 549749258#2 549749258#4"/>
    </vehicle>
    <vehicle id="17" type="car" depart="86305.26" departSpeed="0.00">
        <route edges="35465964#6 35465964#7 541430463#3 541430463#4 541430463#5 541430463#7 541430463#10 450280363#0 -544164277 257568505 237659844#0 544200294 544617969 -397481041#3 -397481041#0 226319973 554016569 522164020 544117078 181849012#0 544200290 116315069#0 307933383#0 307933383#1 307933383#2 307933383#5 307933383#6 307933383#8 307933383#10 307933383#11 237645185#0 237645185#1 237645185#2 237645196#0 237645196#1 237645196#2 525638416#0 525638416#1 525638416#2 237790228#0 237790228#1 237790228#4 237790228#6 237790228#7 237790228#8 449991616#7 449991616#8 449991616#9 449991616#10 449991616#11 449991616#12 449991616#13 449991616#15 449991616#16 449991616#18 449991616#19 449991616#20 217617446#0 217617446#2 13724827#0 13724827#2"/>
    </vehicle>
    <vehicle id="18" type="car" depart="86352.63" departSpeed="0.00">
        <route edges="4752018#7 4752018#8 541430463#5 541430463#7 541430463#10 450280363#0 -544164277 257568505 237659844#0 544200294 544617969 -397481041#3 -397481041#0 226319973 554016569 522164020 544117078 181849012#0 544200290 116315069#0 307933383#0 307933383#1 307933383#2 307933383#5 307933383#6 307933383#8 307933383#10 307933383#11 237645185#0 237645185#1 237645185#2 579981380#0 579981380#1 579981380#3 449991630#0 449991630#1 449991630#2 295124098#20 295124098#21 295124098#23 295124098#25 295124098#26 483469230#7 483469230#9 483469230#10 483469230#12 483469230#13 483469230#15 553743885#1 238179183#0 238179183#1 238179183#2 238179183#4 238179183#5 545718427#0 545718427#1 483469782 440369834#0 440369834#1 304693485 23191708#1 23191708#4 330913949#0 330913949#1"/>
    </vehicle>
</routes>
